[General]
network = IpScheduler

record-eventlog = true 
debug-on-errors = true
result-dir = results
sim-time-limit = 1s

[Config DefaultConfig]
result-dir = DefaultConfig

**.nrtLpUsersNo = 15
**.nrtHpUsersNo = 12
**.rtLpUsersNo = 21
**.rtHpUsersNo = 43

**.ipPacketSize = 1500B
**.ipChannelDatarate = 1.024Mbps