[General]
network = IpScheduler

record-eventlog = true 
debug-on-errors = true
result-dir = results
sim-time-limit = 1s

[Config DefaultConfig]
result-dir = DefaultConfig
IpScheduler.nrtLpUserNo = 10
IpScheduler.nrtHpUserNo = 10
IpScheduler.rtLpUserNo = 10
IpScheduler.rtHpUserNo = 10
