[General]
network = ipsched.IpScheduler

record-eventlog = true 
debug-on-errors = true
result-dir = results
sim-time-limit = 1s

[Config RoundRobin]
result-dir = RoundRobin

**.nrtLpUsersNo = 100
**.nrtHpUsersNo = 75
**.rtLpUsersNo = 25
**.rtHpUsersNo = 50

**.ipPacketSize = intuniform(100B, 1500B)
**.packetGenerationDelay = triang(1000us, 1250us, 1500us)
**.ipChannelDatarate = 1Gbps

**.queueLengthLoggingRate = 10