[General]
record-eventlog = true 
debug-on-errors = true
sim-time-limit = 2s

**.queueLengthLoggingRate = 1000